Version 4
SHEET 1 1224 680
WIRE 896 -576 896 -592
WIRE 896 -528 896 -576
WIRE 896 -384 896 -448
WIRE 272 -208 192 -208
WIRE 384 -208 336 -208
WIRE 848 -208 784 -208
WIRE 976 -208 912 -208
WIRE 192 -128 192 -208
WIRE 256 -128 192 -128
WIRE 384 -128 384 -208
WIRE 384 -128 336 -128
WIRE 496 -128 384 -128
WIRE 640 -128 560 -128
WIRE 784 -128 784 -208
WIRE 784 -128 720 -128
WIRE 848 -128 784 -128
WIRE 976 -128 976 -208
WIRE 976 -128 928 -128
WIRE 1168 -128 976 -128
WIRE 1184 -128 1168 -128
WIRE 432 -64 288 -64
WIRE 1040 -64 848 -64
WIRE 288 -32 288 -64
WIRE 848 -32 848 -64
WIRE -880 -16 -960 -16
WIRE -720 -16 -880 -16
WIRE -640 -16 -720 -16
WIRE -480 -16 -640 -16
WIRE -400 -16 -480 -16
WIRE -240 -16 -400 -16
WIRE -160 -16 -240 -16
WIRE 192 -16 192 -128
WIRE 192 -16 -160 -16
WIRE 256 -16 192 -16
WIRE 432 -16 432 -64
WIRE 784 -16 784 -128
WIRE 816 -16 784 -16
WIRE 1040 -16 1040 -64
WIRE 384 0 384 -128
WIRE 384 0 320 0
WIRE 976 0 976 -128
WIRE 976 0 880 0
WIRE -960 16 -960 -16
WIRE -720 16 -720 -16
WIRE -480 16 -480 -16
WIRE -240 16 -240 -16
WIRE 256 16 240 16
WIRE 816 16 800 16
WIRE -880 32 -880 -16
WIRE -640 32 -640 -16
WIRE -400 32 -400 -16
WIRE -160 32 -160 -16
WIRE 288 32 288 16
WIRE 112 64 80 64
WIRE 240 64 240 16
WIRE 240 64 192 64
WIRE 288 64 288 32
WIRE 624 64 592 64
WIRE 672 64 624 64
WIRE 800 64 800 16
WIRE 800 64 752 64
WIRE 848 64 848 32
WIRE 240 80 240 64
WIRE 800 80 800 64
WIRE 432 112 432 48
WIRE 1040 112 1040 48
WIRE -960 176 -960 96
WIRE -880 176 -880 96
WIRE -880 176 -960 176
WIRE -720 176 -720 96
WIRE -720 176 -880 176
WIRE -640 176 -640 96
WIRE -640 176 -720 176
WIRE -544 176 -640 176
WIRE -480 176 -480 96
WIRE -480 176 -544 176
WIRE -400 176 -400 96
WIRE -400 176 -480 176
WIRE -240 176 -240 96
WIRE -240 176 -400 176
WIRE -160 176 -160 96
WIRE -160 176 -240 176
WIRE -544 192 -544 176
WIRE 240 192 240 160
WIRE 800 192 800 160
FLAG 896 -384 0
FLAG 896 -576 VCC
FLAG 240 192 0
FLAG 80 64 VCC
FLAG 288 64 0
FLAG 432 -64 VCC
FLAG 432 112 0
FLAG 624 64 VCC
FLAG 800 192 0
FLAG 848 64 0
FLAG 1168 -128 output
FLAG 1040 112 0
FLAG 1040 -64 VCC
FLAG -544 192 0
SYMBOL OpAmps\\opamp2 288 -64 R0
SYMATTR InstName U1
SYMATTR Value OPAx134
SYMBOL OpAmps\\opamp2 848 -64 R0
SYMATTR InstName U2
SYMATTR Value OPAx134
SYMBOL voltage 896 -544 R0
WINDOW 123 0 0 Left 0
WINDOW 39 0 0 Left 0
SYMATTR InstName V1
SYMATTR Value 9V
SYMBOL res 208 48 R90
WINDOW 0 0 56 VBottom 2
WINDOW 3 32 56 VTop 2
SYMATTR InstName R1
SYMATTR Value 4.7k
SYMBOL res 256 176 R180
WINDOW 0 36 76 Left 2
WINDOW 3 36 40 Left 2
SYMATTR InstName R2
SYMATTR Value 15k
SYMBOL res 352 -144 R90
WINDOW 0 0 102 VBottom 2
WINDOW 3 32 56 VTop 2
SYMATTR InstName R3
SYMATTR Value 10Meg
SYMBOL cap 336 -224 R90
WINDOW 0 0 32 VBottom 2
WINDOW 3 32 32 VTop 2
SYMATTR InstName C4
SYMATTR Value 5p
SYMBOL polcap 416 -16 R0
SYMATTR InstName C5
SYMATTR Value 47µ
SYMBOL current -960 96 R180
WINDOW 0 24 80 Left 2
WINDOW 3 24 0 Left 2
WINDOW 123 0 0 Left 0
WINDOW 39 0 0 Left 0
SYMATTR InstName I1
SYMATTR Value 80µ
SYMBOL cap -896 32 R0
SYMATTR InstName C1
SYMATTR Value 72p
SYMBOL current -720 96 R180
WINDOW 0 24 80 Left 2
WINDOW 3 24 0 Left 2
WINDOW 123 0 0 Left 0
WINDOW 39 0 0 Left 0
SYMATTR InstName I2
SYMATTR Value 80µ
SYMBOL cap -656 32 R0
SYMATTR InstName C2
SYMATTR Value 72p
SYMBOL current -480 96 R180
WINDOW 0 24 80 Left 2
WINDOW 3 24 0 Left 2
WINDOW 123 0 0 Left 0
WINDOW 39 0 0 Left 0
SYMATTR InstName I3
SYMATTR Value 80µ
SYMBOL cap -416 32 R0
SYMATTR InstName C3
SYMATTR Value 72p
SYMBOL current -240 96 R180
WINDOW 0 24 80 Left 2
WINDOW 3 24 0 Left 2
WINDOW 123 0 0 Left 0
WINDOW 39 0 0 Left 0
SYMATTR InstName I4
SYMATTR Value 80µ
SYMBOL cap -176 32 R0
SYMATTR InstName C6
SYMATTR Value 72p
SYMBOL cap 560 -144 R90
WINDOW 0 0 32 VBottom 2
WINDOW 3 32 32 VTop 2
SYMATTR InstName C7
SYMATTR Value 100n
SYMBOL res 736 -144 R90
WINDOW 0 0 56 VBottom 2
WINDOW 3 32 56 VTop 2
SYMATTR InstName R4
SYMATTR Value 1k
SYMBOL res 944 -144 R90
WINDOW 0 5 103 VBottom 2
WINDOW 3 32 56 VTop 2
SYMATTR InstName R5
SYMATTR Value 100k
SYMBOL cap 912 -224 R90
WINDOW 0 0 32 VBottom 2
WINDOW 3 32 32 VTop 2
SYMATTR InstName C8
SYMATTR Value 10p
SYMBOL res 768 48 R90
WINDOW 0 0 56 VBottom 2
WINDOW 3 32 56 VTop 2
SYMATTR InstName R6
SYMATTR Value 10k
SYMBOL res 816 176 R180
WINDOW 0 36 76 Left 2
WINDOW 3 36 40 Left 2
SYMATTR InstName R7
SYMATTR Value 10k
SYMBOL polcap 1024 -16 R0
SYMATTR InstName C10
SYMATTR Value 47µ
TEXT 312 376 Left 2 !.op
TEXT 320 424 Left 2 !.LIB sbom042f/OPAx134.LIB
